6

H         -0.56873        0.85249        0.61754
C         -0.06711        0.17329       -0.10207
Cl        -0.91137        3.37092       -1.79867
Br         0.37257       -1.49005        0.77975
H         -0.74706       -0.02842       -0.95516
H          0.86190        0.65134       -0.47518
