     6
 geometry
 H                    -0.58516991     0.92685258     0.60625715
 C                    -0.12760434     0.42902362    -0.23483304
 Cl                   -0.73254956     2.68444313    -1.43817526
 Br                    0.41094673    -1.59754332     0.83881279
 H                    -0.77268493     0.02503866    -0.99968124
 H                     0.87354884     0.71900290    -0.51447055
     6
 geometry
 H                    -0.59193988     0.94314618     0.60371422
 C                    -0.14432084     0.49015355    -0.26766639
 Cl                   -0.72879889     2.67078626    -1.43081534
 Br                    0.41197516    -1.60127063     0.84081767
 H                    -0.78040879     0.03523416    -1.01137134
 H                     0.87539397     0.73406805    -0.52364545
     6
 geometry
 H                    -0.59870984     0.95943979     0.60117129
 C                    -0.16103735     0.55128349    -0.30049974
 Cl                   -0.72504821     2.65712938    -1.42345543
 Br                    0.41300360    -1.60499793     0.84282256
 H                    -0.78813265     0.04542966    -1.02306144
 H                     0.87723910     0.74913319    -0.53282036
     6
 geometry
 H                    -0.60547981     0.97573339     0.59862836
 C                    -0.17775385     0.61241342    -0.33333309
 Cl                   -0.72129754     2.64347250    -1.41609551
 Br                    0.41403204    -1.60872524     0.84482745
 H                    -0.79585651     0.05562516    -1.03475154
 H                     0.87908423     0.76419834    -0.54199527
     6
 geometry
 H                    -0.61224977     0.99202699     0.59608544
 C                    -0.19447036     0.67354335    -0.36616644
 Cl                   -0.71754687     2.62981562    -1.40873559
 Br                    0.41506047    -1.61245254     0.84683233
 H                    -0.80358037     0.06582066    -1.04644164
 H                     0.88092936     0.77926349    -0.55117017
     6
 geometry
 H                    -0.61901974     1.00832060     0.59354251
 C                    -0.21118686     0.73467329    -0.39899979
 Cl                   -0.71379619     2.61615874    -1.40137568
 Br                    0.41608891    -1.61617985     0.84883722
 H                    -0.81130424     0.07601616    -1.05813173
 H                     0.88277449     0.79432864    -0.56034508
     6
 geometry
 H                    -0.61224977     0.99202699     0.59608544
 C                    -0.19447036     0.67354335    -0.36616644
 Cl                   -0.71754687     2.62981562    -1.40873559
 Br                    0.41506047    -1.61245254     0.84683233
 H                    -0.80358037     0.06582066    -1.04644164
 H                     0.88092936     0.77926349    -0.55117017
     6
 geometry
 H                    -0.60547981     0.97573339     0.59862836
 C                    -0.17775385     0.61241342    -0.33333309
 Cl                   -0.72129754     2.64347250    -1.41609551
 Br                    0.41403204    -1.60872524     0.84482745
 H                    -0.79585651     0.05562516    -1.03475154
 H                     0.87908423     0.76419834    -0.54199527
     6
 geometry
 H                    -0.59870984     0.95943979     0.60117129
 C                    -0.16103735     0.55128349    -0.30049974
 Cl                   -0.72504821     2.65712938    -1.42345543
 Br                    0.41300360    -1.60499793     0.84282256
 H                    -0.78813265     0.04542966    -1.02306144
 H                     0.87723910     0.74913319    -0.53282036
     6
 geometry
 H                    -0.59193988     0.94314618     0.60371422
 C                    -0.14432084     0.49015355    -0.26766639
 Cl                   -0.72879889     2.67078626    -1.43081534
 Br                    0.41197516    -1.60127063     0.84081767
 H                    -0.78040879     0.03523416    -1.01137134
 H                     0.87539397     0.73406805    -0.52364545
     6
 geometry
 H                    -0.58516991     0.92685258     0.60625715
 C                    -0.12760434     0.42902362    -0.23483304
 Cl                   -0.73254956     2.68444313    -1.43817526
 Br                    0.41094673    -1.59754332     0.83881279
 H                    -0.77268493     0.02503866    -0.99968124
 H                     0.87354884     0.71900290    -0.51447055
     6
 geometry
 H                    -0.57839995     0.91055898     0.60880007
 C                    -0.11088783     0.36789369    -0.20199969
 Cl                   -0.73630024     2.69810001    -1.44553517
 Br                    0.40991829    -1.59381601     0.83680790
 H                    -0.76496106     0.01484316    -0.98799114
 H                     0.87170371     0.70393775    -0.50529564
     6
 geometry
 H                    -0.57162998     0.89426537     0.61134300
 C                    -0.09417133     0.30676376    -0.16916634
 Cl                   -0.74005091     2.71175689    -1.45289509
 Br                    0.40888986    -1.59008871     0.83480301
 H                    -0.75723720     0.00464766    -0.97630104
 H                     0.86985858     0.68887260    -0.49612074
     6
 geometry
 H                    -0.56486002     0.87797177     0.61388593
 C                    -0.07745482     0.24563382    -0.13633299
 Cl                   -0.74380158     2.72541377    -1.46025501
 Br                    0.40786142    -1.58636140     0.83279813
 H                    -0.74951334    -0.00554784    -0.96461095
 H                     0.86801346     0.67380745    -0.48694583
     6
 geometry
 H                    -0.55809005     0.86167816     0.61642886
 C                    -0.06073831     0.18450389    -0.10349964
 Cl                   -0.74755226     2.73907065    -1.46761492
 Br                    0.40683299    -1.58263410     0.83079324
 H                    -0.74178948    -0.01574334    -0.95292085
 H                     0.86616833     0.65874231    -0.47777092
     6
 geometry
 H                    -0.55132009     0.84538456     0.61897178
 C                    -0.04402181     0.12337396    -0.07066629
 Cl                   -0.75130293     2.75272753    -1.47497484
 Br                    0.40580455    -1.57890679     0.82878836
 H                    -0.73406562    -0.02593883    -0.94123075
 H                     0.86432320     0.64367716    -0.46859602
     6
 geometry
 H                    -0.55809005     0.86167816     0.61642886
 C                    -0.06073831     0.18450389    -0.10349964
 Cl                   -0.74755226     2.73907065    -1.46761492
 Br                    0.40683299    -1.58263410     0.83079324
 H                    -0.74178948    -0.01574334    -0.95292085
 H                     0.86616833     0.65874231    -0.47777092
     6
 geometry
 H                    -0.56486002     0.87797177     0.61388593
 C                    -0.07745482     0.24563382    -0.13633299
 Cl                   -0.74380158     2.72541377    -1.46025501
 Br                    0.40786142    -1.58636140     0.83279813
 H                    -0.74951334    -0.00554784    -0.96461095
 H                     0.86801346     0.67380745    -0.48694583
     6
 geometry
 H                    -0.57162998     0.89426537     0.61134300
 C                    -0.09417133     0.30676376    -0.16916634
 Cl                   -0.74005091     2.71175689    -1.45289509
 Br                    0.40888986    -1.59008871     0.83480301
 H                    -0.75723720     0.00464766    -0.97630104
 H                     0.86985858     0.68887260    -0.49612074
     6
 geometry
 H                    -0.57839995     0.91055898     0.60880007
 C                    -0.11088783     0.36789369    -0.20199969
 Cl                   -0.73630024     2.69810001    -1.44553517
 Br                    0.40991829    -1.59381601     0.83680790
 H                    -0.76496106     0.01484316    -0.98799114
 H                     0.87170371     0.70393775    -0.50529564
